[General]
network = Aerocom

cpu-time-limit = 1000s
real-time-limit = 1000s
sim-time-limit = 1000s

**.aircraft[*].size = 100 byte
**.aircraft[*].serving = 1
**.dataLink[*].t = 5s
**.dataLink[*].actualCapacity = 10
**.dataLink[*].dimPoolMax = 10
**.dataLink[*].X = 2
<<<<<<< HEAD
**.nDL = 2
=======
**.dataLink[*].nDL = 25
**.controlTower.nDL = 5
**.nDL = 5
>>>>>>> 343b348c6a25c26a8b3c24d332d768cd8a585b92
**.aircraft[*].k = 2.0s
**.aircraft[*].m = 10s
**.dataLink[*].dimPoolMin = 1
