[General]
network = Aerocom

cpu-time-limit = 1000s
real-time-limit = 1000s
sim-time-limit = 1000s

**.aircraft[*].size = 100 byte
**.aircraft[*].serving = 1
**.dataLink[*].t = 5s
**.dataLink[*].actualCapacity = 10
**.dataLink[*].dimPoolMax = 10
**.dataLink[*].X = 2
**.nDL = 2
**.dataLink[*].nDL = 25
**.controlTower.nDL = 5
**.nDL = 5
**.aircraft[*].k = 2.0s
**.aircraft[*].m = 10s
**.dataLink[*].dimPoolMin = 1
